Vin 1 0 5 0 0 0
R1 1 2 1
R2 2 0 1
dV 1m
dI 1m
dT 1u
.tran 1.25m