dI 1m
dV 100u
dT 100u
Vin 1 0 0 2 50 0
R1 1 2 50
D1 2 3 1
C1 3 0 1n
R2 3 0 1K
.tran 10m 