dI 1m
dV 1m
dT 1m
V1 1 2 12 0 0 0
R1 1 0 2
R2 1 2 2
H1 2 0 R2 2
R3 2 0 2
.tran 20m