dI 100
dV 100u
dT 0.1u
Vin 1 0 0 1 1M
L1  1 2 10u
C1 2 3 1u
L2 3 0 10u
C2 3 0 1u
L3 3 4 10u
C3 4 5 1u
R1 5 0 100K
.tran 100u