Vin 1 0 5 0 0 0
R1 1 2 4
C1 2 0 2
dV 1m
dI 10000
dT 1u
.tran 15m