I1 1 0 10m 0 0 0
R1 1 0 1K
C1 1 0 1u
dV 1m
dI 1000
dT 10u
.tran 100m