dI 1000
dV 100u
dT 1u
I1 1 0 10m 0 0 0
L1 1 0 10u
C1 1 0 1u
R1 1 0 1K
.tran 110m