dI 1000
dV 10u
dT 1m
V1 1 0 1 0 0 0
R1 1 2 0.1
L1 2 3 1u
C1 3 0 25.33n
.tran 10m