dI 0.001
dV 0.01
dT 1
I1 1 0 3m 0 0 0
R1 1 2 4K
R2 2 3 4K
R3 1 3 1K
R4 2 0 1K
R5 3 0 2K
.tran 10