Iin 1 0 1 0 0 0
R1 1 0 2
L1 1 0 2u
dV 10m
dI 1000
dT 100n
.tran 100m